/*--------------------------------*- C++ -*----------------------------------*\
| =========                 |                                                 |
| \\      /  F ield         | OpenFOAM: The Open Source CFD Toolbox           |
|  \\    /   O peration     | Version:  v2412                                 |
|   \\  /    A nd           | Website:  www.openfoam.com                      |
|    \\/     M anipulation  |                                                 |
\*---------------------------------------------------------------------------*/
FoamFile
{
    version     2.0;
    format      ascii;
    class       dictionary;
    location    "LOCATION_PLACEHOLDER";
    object      fvSchemes;
}
// * * * * * * * * * * * * * * * * * * * * * * * * * * * * * * * * * * * * * //

ddtSchemes
{
    default         steadyState;
}

gradSchemes
{
    default         Gauss linear;
}

divSchemes
{
    default         bounded Gauss upwind;
}
divSchemes
{
    default         none;

    div(phi,U)      bounded Gauss upwind;

    energy          bounded Gauss upwind;
    div(phi,K)      $energy;
    div(phi,h)      $energy;

    turbulence      bounded Gauss upwind;
    div(phi,k)      $turbulence;
    div(phi,alphat) $turbulence;
    div(phi,R)      $turbulence;
    div(R)          Gauss linear;

    div(Ji,Ii_h)    Gauss linearUpwind grad(U);
    div(((rho*nuEff)*dev2(T(grad(U))))) Gauss linear;
}

laplacianSchemes
{
    default         Gauss linear orthogonal;
}

interpolationSchemes
{
    default         linear;
}

snGradSchemes
{
    default         orthogonal;
}
