/*--------------------------------*- C++ -*----------------------------------*\
| =========                 |                                                 |
| \\      /  F ield         | OpenFOAM: The Open Source CFD Toolbox           |
|  \\    /   O peration     | Version:  2412                                  |
|   \\  /    A nd           | Website:  www.openfoam.com                      |
|    \\/     M anipulation  |                                                 |
\*---------------------------------------------------------------------------*/
FoamFile
{
    version     2.0;
    format      binary;
    arch        "LSB;label=32;scalar=64";
    class       volScalarField;
    location    "0/board";
    object      T;
}
// * * * * * * * * * * * * * * * * * * * * * * * * * * * * * * * * * * * * * //

dimensions      [ 0 0 0 1 0 0 0 ];

internalField   uniform 300;

boundaryField
{
    ".*"
    {
        type            externalWallHeatFluxTemperature;
        kappaMethod     solidThermo;
        mode            flux;
        Ta              uniform 300;
        q               uniform 0;
        value           uniform 300;
        kappaName       none;
    }
    "board_to_.*"
    {
        type            compressible::turbulentTemperatureRadCoupledMixed;
        qrNbr           none;
        qr              none;
        Tnbr            T;
        kappaMethod     solidThermo;
        useImplicit     true;
        value           uniform 300;
    }
}


// ************************************************************************* //
