/*--------------------------------*- C++ -*----------------------------------*\
| =========                 |                                                 |
| \\      /  F ield         | OpenFOAM: The Open Source CFD Toolbox           |
|  \\    /   O peration     | Version:  v2412                                 |
|   \\  /    A nd           | Website:  www.openfoam.com                      |
|    \\/     M anipulation  |                                                 |
\*---------------------------------------------------------------------------*/
FoamFile
{
    version     2.0;
    format      ascii;
    class       volScalarField;
    location    "LOCATION_PLACEHOLDER";
    object      T;
}
// * * * * * * * * * * * * * * * * * * * * * * * * * * * * * * * * * * * * * //

dimensions      [0 0 0 1 0 0 0];

internalField   uniform 300;

boundaryField
{
     //#includeEtc "caseDicts/setConstraintTypes"
	".*_to_.*"
    {
        type            compressible::turbulentTemperatureRadCoupledMixed;
        qrNbr           none;
        qr              none;
        Tnbr            T;
        kappaMethod     solidThermo;
        useImplicit     true;
        value           $internalField;
    }

	".*"
    {
        type            externalWallHeatFluxTemperature;
        kappaMethod     solidThermo;
        mode            flux;
        Ta              $internalField;
        q               uniform 0;
        value           $internalField;
        kappaName       none;
    }

}

// ************************************************************************* //
