/*--------------------------------*- C++ -*----------------------------------*\
| =========                 |                                                 |
| \\      /  F ield         | OpenFOAM: The Open Source CFD Toolbox           |
|  \\    /   O peration     | Version:  2412                                  |
|   \\  /    A nd           | Website:  www.openfoam.com                      |
|    \\/     M anipulation  |                                                 |
\*---------------------------------------------------------------------------*/
FoamFile
{
    version     2.0;
    format      binary;
    arch        "LSB;label=32;scalar=64";
    class       polyBoundaryMesh;
    location    "constant/polyMesh";
    object      boundary;
}
// * * * * * * * * * * * * * * * * * * * * * * * * * * * * * * * * * * * * * //

6
(
    XMin
    {
        type            wall;
        inGroups        1(wall);
        nFaces          100;
        startFace       2700;
    }
    XMax
    {
        type            wall;
        inGroups        1(wall);
        nFaces          100;
        startFace       2800;
    }
    YMin
    {
        type            wall;
        inGroups        1(wall);
        nFaces          100;
        startFace       2900;
    }
    YMax
    {
        type            wall;
        inGroups        1(wall);
        nFaces          100;
        startFace       3000;
    }
    ZMin
    {
        type            wall;
        inGroups        1(wall);
        nFaces          100;
        startFace       3100;
    }
    ZMax
    {
        type            wall;
        inGroups        1(wall);
        nFaces          100;
        startFace       3200;
    }
)

// ************************************************************************* //
