/*--------------------------------*- C++ -*----------------------------------*\
| =========                 |                                                 |
| \\      /  F ield         | OpenFOAM: The Open Source CFD Toolbox           |
|  \\    /   O peration     | Version:  v2412                                 |
|   \\  /    A nd           | Website:  www.openfoam.com                      |
|    \\/     M anipulation  |                                                 |
\*---------------------------------------------------------------------------*/
FoamFile
{
    version     2.0;
    format      ascii;
    class       dictionary;
	location	"LOCATION_PLACEHOLDER";
    object      blockMeshDict;
}
// * * * * * * * * * * * * * * * * * * * * * * * * * * * * * * * * * * * * * //

scale   0.001;

vertices
(
	(-5 -5 -5)	
	(5 -5 -5)	
	(5 5 -5)	
	(-5 5 -5)	
	(-5 -5 5)	
	(5 -5 5)	
	(5 5 5)	
	(-5 5 5)	
);

blocks
(
    hex (0 1 2 3 4 5 6 7) ( 10 10 10 ) simpleGrading ( 1 1 1 )
);

edges
(
);

boundary
(
    XMin
    {
        type wall;
        faces
        (
            (0 4 7 3)
        );
    }
    XMax
    {
        type wall;
        faces
        (
            (1 2 6 5)
        );
    }
    YMin
    {
        type wall;
        faces
        (
            (0 1 5 4)
        );
    }
    YMax
    {
        type wall;
        faces
        (
            (3 7 6 2)
        );
    }
    ZMin
    {
        type wall;
        faces
        (
            (0 3 2 1)
        );
    }
    ZMax
    {
        type wall;
        faces
        (
            (4 5 6 7)
        );
    }
);


// ************************************************************************* //
